* NGSPICE file created from raven.ext - technology: EFXH018D

* Need include to schematic netlist for CORNERESDF
* Unknown black-box entry CORNERESDF
.subckt CORNERESDF GNDR VDDR VDD VDDO GNDO

* Need include to schematic netlist for FILLER01F
* Unknown black-box entry FILLER01F
.subckt FILLER01F VDDO VDDR GNDR GNDO VDD

* Need include to schematic netlist for FILLER10F
* Unknown black-box entry FILLER10F
.subckt FILLER10F VDDO VDDR GNDR GNDO VDD

* Need include to schematic netlist for FILLER20F
* Unknown black-box entry FILLER20F
.subckt FILLER20F VDDO VDDR GNDR GNDO VDD

* Need include to schematic netlist for FILLER50F
* Unknown black-box entry FILLER50F
.subckt FILLER50F VDDO VDDR GNDR GNDO VDD

* Need include to schematic netlist for VDDPADF
* Unknown black-box entry VDDPADF
.subckt VDDPADF VDDO VDDR GNDR GNDO VDD

* Need include to schematic netlist for VDDORPADF
* Unknown black-box entry VDDORPADF
.subckt VDDORPADF VDDOR GNDR GNDO VDD

* Need include to schematic netlist for GNDORPADF
* Unknown black-box entry GNDORPADF
.subckt GNDORPADF VDDO VDDR VDD GNDOR

* Need include to schematic netlist for ICF
* Unknown black-box entry ICF
.subckt ICF PO PI Y PAD VDDO VDDR GNDR GNDO VDD

* Need include to schematic netlist for BT4F
* Unknown black-box entry BT4F
.subckt BT4F EN A PAD VDDO VDDR GNDR GNDO VDD

* Need include to schematic netlist for BBC4F
* Unknown black-box entry BBC4F
.subckt BBC4F EN A Y PO PI PAD VDDO GNDO GNDR VDDR VDD

* Need include to schematic netlist for FILLER40F
* Unknown black-box entry FILLER40F
.subckt FILLER40F VDDO VDDR GNDR GNDO VDD

* Need include to schematic netlist for POWERCUTVDD3FC
* Unknown black-box entry POWERCUTVDD3FC
.subckt POWERCUTVDD3FC VDDO VDDR GNDR GNDO

* Need include to schematic netlist for VDDPADFC
* Unknown black-box entry VDDPADFC
.subckt VDDPADFC VDDO VDDR GNDR GNDO VDD3

* Need include to schematic netlist for BT4FC
* Unknown black-box entry BT4FC
.subckt BT4FC EN A PAD VDDO VDDR GNDR GNDO VDD3

* Need include to schematic netlist for ICFC
* Unknown black-box entry ICFC
.subckt ICFC PO PI Y PAD VDDO VDDR GNDR GNDO VDD3

* Need include to schematic netlist for FILLER20FC
* Unknown black-box entry FILLER20FC
.subckt FILLER20FC VDDO VDDR GNDR GNDO VDD3

* Need include to schematic netlist for BBCUD4F
* Unknown black-box entry BBCUD4F
.subckt BBCUD4F EN A Y PO PI PUEN PDEN PAD VDDO GNDO GNDR VDDR VDD

* Need include to schematic netlist for APR00DF
* Unknown black-box entry APR00DF
.subckt APR00DF PAD VDDO VDDR GNDR GNDO VDD

* Need include to schematic netlist for aregc01_3v3
* Unknown black-box entry aregc01_3v3
.subckt aregc01_3v3 OUT EN VIN3 ENB VDD VDDR GNDR GNDO VDDO

* Need include to schematic netlist for FILLER02F
* Unknown black-box entry FILLER02F
.subckt FILLER02F VDDO VDDR GNDR GNDO VDD

* Need include to schematic netlist for axtoc02_3v3
* Unknown black-box entry axtoc02_3v3
.subckt axtoc02_3v3 GNDO VDDO GNDR VDDR VDD XI XO CLK EN

.subckt raven_padframe VDD3V3 VDD1V8 BBCUD4F_0|PI BBCUD4F_4|EN gpio<10> VDD1V8 VDD3V3  XCLK comp_inn BBCUD4F_8|PDEN VSS BBCUD4F_5|Y BBCUD4F_9|PUEN VDD3V3 VDD3V3 BBCUD4F_2|A  ICF_2|PI comp_inp SCK gpio<9> ICFC_0|VDD3 BBC4F_3|A VDD1V8 BBCUD4F_14|PI BBCUD4F_0|EN  flash_io0 VDD1V8 comp_inp VDD1V8 VDD1V8 BBCUD4F_7|PI BBC4F_1|PI VDD3V3 BBCUD4F_0|PDEN  ICF_1|Y gpio<14> BBCUD4F_13|Y VDD1V8 BBCUD4F_1|PUEN BT4F_2|A BBCUD4F_13|PDEN VDD1V8  VDD3V3 VDD1V8 VDD3V3 BBCUD4F_10|A VDD1V8 gpio<2> BBCUD4F_14|PUEN VDD3V3 BBCUD4F_9|Y  VDD1V8 VDD3V3 VDD1V8 BT4F_2|EN BBCUD4F_6|A VDD1V8 irq VDD3V3 VDD1V8 BBCUD4F_10|PI  BBCUD4F_7|PDEN BBCUD4F_8|PUEN BBCUD4F_0|Y BBCUD4F_14|EN VDD3V3 BBCUD4F_3|PI BBC4F_1|EN  BBCUD4F_7|EN BBC4F_1|Y ICFC_0|PI VDD1V8 APR00DF_3|PAD VDD3V3 VDD3V3 BBCUD4F_14|A  VDD1V8 BT4FC_0|A VDD1V8 gpio<6> VDD3V3 BT4FC_0|EN VDD1V8 BBCUD4F_12|PDEN BBCUD4F_0|PUEN  VDD3V3 VDD3V3 VSS BBCUD4F_13|PUEN VDD1V8 axtoc02_3v3_0|CLK BBCUD4F_10|EN BBCUD4F_4|Y  BBCUD4F_3|EN VSS gpio<11> BBCUD4F_1|A VDD1V8 VDD3V3 SDI BBC4F_2|A BBCUD4F_6|PDEN  BBCUD4F_7|PUEN VDD3V3 VDD3V3 VDD3V3 ICF_1|PI XCLK ICF_0|Y BBCUD4F_12|Y adc0_in BT4F_1|A  ICFC_0|VDD3 BBCUD4F_13|PI axtoc02_3v3_0|EN BBCUD4F_8|Y VDD1V8 VDD1V8 w_n1073741817_n1073741817#  VDD3V3 BBCUD4F_6|PI BBC4F_0|PI BBCUD4F_5|A flash_io1 BBCUD4F_11|PDEN VDD3V3 BBCUD4F_12|PUEN  gpio<15> gpio<3> VDD1V8 VDD1V8 VDD1V8 BBC4F_0|Y BT4F_1|EN aregc01_3v3_1|EN VDD3V3  VDD1V8 VDD1V8 BBCUD4F_5|PDEN VDD3V3 VDD1V8 BBCUD4F_6|PUEN ICFC_2|Y BBCUD4F_13|A  BBCUD4F_13|EN VDD1V8 VDD3V3 BBCUD4F_2|PI SDO BBC4F_0|EN BBCUD4F_6|EN BBCUD4F_9|A  ser_tx VDD3V3 axtoc02_3v3_0|XI VDD1V8 APR00DF_4|PAD BBCUD4F_3|Y aregc01_3v3_0|ENB  gpio<7> BBCUD4F_0|A VDD1V8 VDD3V3 BBCUD4F_10|PDEN adc1_in VDD3V3 BBC4F_1|A BBCUD4F_11|PUEN  VDD3V3 VDD1V8 VDD1V8 BBCUD4F_2|EN VDD1V8 VDD1V8 VDD3V3 BBCUD4F_9|PI BBC4F_3|PI gpio<12>  VDD3V3 ICFC_0|VDD3 BBCUD4F_11|Y gpio<0> BT4F_0|A VDD1V8 VDD3V3 BBCUD4F_5|PUEN BBCUD4F_4|PDEN  BBCUD4F_7|Y VDD3V3 flash_csb BBCUD4F_4|A VDD3V3 ICF_0|PI VDD1V8 VSS BBCUD4F_12|PI  adc1_in BBCUD4F_5|PI VDD3V3 VDD1V8 VDD3V3 ICFC_2|PI BBC4F_3|EN BBCUD4F_9|EN VDD1V8  axtoc02_3v3_0|XO BBCUD4F_10|PUEN flash_io3 BBCUD4F_15|Y VDD3V3 VDD3V3 aregc01_3v3_0|OUT  BBCUD4F_12|A ICFC_1|Y VDD3V3 gpio<4> VDD3V3 VDD1V8 BT4F_0|EN aregc01_3v3_0|EN BBCUD4F_8|A  flash_clk ICFC_0|VDD3 VDD1V8 BBCUD4F_3|PDEN BBCUD4F_4|PUEN VDD1V8 BBCUD4F_12|EN  BBCUD4F_2|Y VDD3V3 BBCUD4F_1|PI BBC4F_3|Y flash_io0 VDD1V8 BBCUD4F_5|EN VDD3V3 BBC4F_0|A  flash_io1 VDD3V3 VDD3V3 comp_inn XI adc0_in flash_io2 gpio<8> aregc01_3v3_1|ENB  VDD1V8 VDD1V8 BBCUD4F_10|Y VDD1V8 VDD1V8 flash_io3 BBCUD4F_6|Y BBCUD4F_15|PI BBCUD4F_1|EN  VDD3V3 BBCUD4F_8|PI BBC4F_2|PI BBCUD4F_3|A ICFC_0|VDD3 VDD1V8 gpio<13> VDD1V8 VDD1V8  VDD1V8 BBCUD4F_3|PUEN BBCUD4F_2|PDEN gpio<1> BBCUD4F_15|PDEN VDD1V8 VDD3V3 aregc01_3v3_1|VIN3  VDD3V3 VDD1V8 CSB ICF_2|Y BBCUD4F_14|Y VDD3V3 VDD1V8 BBCUD4F_11|PI ICFC_0|Y flash_clk  BBCUD4F_11|A BBCUD4F_9|PDEN BBCUD4F_15|EN ICFC_0|VDD3 VDD1V8 VDD3V3 VSS BBCUD4F_4|PI  ser_rx BBCUD4F_8|EN BBC4F_2|EN VDD1V8 ICFC_1|PI APR00DF_2|PAD BBCUD4F_7|A VDD3V3  VDD1V8 VDD3V3 XO flash_io2 gpio<5> BBCUD4F_1|Y VDD3V3 VSS aregc01_3v3_1|OUT BBC4F_2|Y  VDD1V8 BBCUD4F_1|PDEN VDD3V3 VDD3V3 BBCUD4F_14|PDEN BBCUD4F_15|PUEN flash_csb BBCUD4F_2|PUEN  VDD3V3 aregc01_3v3_0|VIN3 BBCUD4F_11|EN BBCUD4F_15|A
XCORNERESDF_3 VSS VDD3V3 VDD1V8 VDD3V3 VSS CORNERESDF
XFILLER01F_1 VDD3V3 VDD3V3 VSS VSS VDD1V8 FILLER01F
XFILLER10F_1 VDD3V3 VDD3V3 VSS VSS VDD1V8 FILLER10F
XFILLER20F_1 VDD3V3 VDD3V3 VSS VSS VDD1V8 FILLER20F
XFILLER50F_2 VDD3V3 VDD3V3 VSS VSS VDD1V8 FILLER50F
XVDDPADF_1 VDD3V3 VDD3V3 VSS VSS VDD1V8 VDDPADF
XVDDORPADF_4 VDD3V3 VSS VSS VDD1V8 VDDORPADF
XGNDORPADF_3 VDD3V3 VDD3V3 VDD1V8 VSS GNDORPADF
XICF_2 ICF_2|PO ICF_2|PI ICF_2|Y XCLK VDD3V3 VDD3V3 VSS VSS VDD1V8 ICF
XBT4F_1 BT4F_1|EN BT4F_1|A flash_clk VDD3V3 VDD3V3 VSS VSS VDD1V8 BT4F
XBT4F_2 BT4F_2|EN BT4F_2|A flash_csb VDD3V3 VDD3V3 VSS VSS VDD1V8 BT4F
XBBC4F_0 BBC4F_0|EN BBC4F_0|A BBC4F_0|Y BBC4F_0|PO BBC4F_0|PI flash_io0 VDD3V3 VSS  VSS VDD3V3 VDD1V8 BBC4F
XBBC4F_1 BBC4F_1|EN BBC4F_1|A BBC4F_1|Y BBC4F_1|PO BBC4F_1|PI flash_io1 VDD3V3 VSS  VSS VDD3V3 VDD1V8 BBC4F
XBBC4F_3 BBC4F_3|EN BBC4F_3|A BBC4F_3|Y BBC4F_3|PO BBC4F_3|PI flash_io2 VDD3V3 VSS  VSS VDD3V3 VDD1V8 BBC4F
XBBC4F_2 BBC4F_2|EN BBC4F_2|A BBC4F_2|Y BBC4F_2|PO BBC4F_2|PI flash_io3 VDD3V3 VSS  VSS VDD3V3 VDD1V8 BBC4F
XFILLER40F_0 VDD3V3 VDD3V3 VSS VSS VDD1V8 FILLER40F
XPOWERCUTVDD3FC_1 VDD3V3 VDD3V3 VSS VSS POWERCUTVDD3FC
XVDDPADFC_0 VDD3V3 VDD3V3 VSS VSS ICFC_0|VDD3 VDDPADFC
XBT4FC_0 BT4FC_0|EN BT4FC_0|A SDO VDD3V3 VDD3V3 VSS VSS ICFC_0|VDD3 BT4FC
XICFC_2 ICFC_2|PO ICFC_2|PI ICFC_2|Y SCK VDD3V3 VDD3V3 VSS VSS ICFC_0|VDD3 ICFC
XICFC_1 ICFC_1|PO ICFC_1|PI ICFC_1|Y CSB VDD3V3 VDD3V3 VSS VSS ICFC_0|VDD3 ICFC
XFILLER20FC_0 VDD3V3 VDD3V3 VSS VSS ICFC_0|VDD3 FILLER20FC
XICFC_0 ICFC_0|PO ICFC_0|PI ICFC_0|Y SDI VDD3V3 VDD3V3 VSS VSS ICFC_0|VDD3 ICFC
XPOWERCUTVDD3FC_0 VDD3V3 VDD3V3 VSS VSS POWERCUTVDD3FC
XFILLER20F_8 VDD3V3 VDD3V3 VSS VSS VDD1V8 FILLER20F
XBBCUD4F_15 BBCUD4F_15|EN BBCUD4F_15|A BBCUD4F_15|Y BBCUD4F_15|PO BBCUD4F_15|PI BBCUD4F_15|PUEN  BBCUD4F_15|PDEN gpio<15> VDD3V3 VSS VSS VDD3V3 VDD1V8 BBCUD4F
XGNDORPADF_5 VDD3V3 VDD3V3 VDD1V8 VSS GNDORPADF
XFILLER20F_0 VDD3V3 VDD3V3 VSS VSS VDD1V8 FILLER20F
XCORNERESDF_2 VSS VDD3V3 VDD1V8 VDD3V3 VSS CORNERESDF
XFILLER20F_7 VDD3V3 VDD3V3 VSS VSS VDD1V8 FILLER20F
XICF_0 ICF_0|PO ICF_0|PI ICF_0|Y ser_rx VDD3V3 VDD3V3 VSS VSS VDD1V8 ICF
XBT4F_0 BT4F_0|EN BT4F_0|A ser_tx VDD3V3 VDD3V3 VSS VSS VDD1V8 BT4F
XICF_1 ICF_1|PO ICF_1|PI ICF_1|Y irq VDD3V3 VDD3V3 VSS VSS VDD1V8 ICF
XAPR00DF_6 comp_inp VDD3V3 VDD3V3 VSS VSS VDD1V8 APR00DF
XAPR00DF_5 comp_inn VDD3V3 VDD3V3 VSS VSS VDD1V8 APR00DF
XFILLER50F_1 VDD3V3 VDD3V3 VSS VSS VDD1V8 FILLER50F
XGNDORPADF_0 VDD3V3 VDD3V3 VDD1V8 VSS GNDORPADF
XVDDORPADF_0 VDD3V3 VSS VSS VDD1V8 VDDORPADF
XVDDPADF_0 VDD3V3 VDD3V3 VSS VSS VDD1V8 VDDPADF
XFILLER20F_6 VDD3V3 VDD3V3 VSS VSS VDD1V8 FILLER20F
XGNDORPADF_2 VDD3V3 VDD3V3 VDD1V8 VSS GNDORPADF
XFILLER50F_0 VDD3V3 VDD3V3 VSS VSS VDD1V8 FILLER50F
XGNDORPADF_6 VDD3V3 VDD3V3 VDD1V8 VSS GNDORPADF
XVDDORPADF_2 VDD3V3 VSS VSS VDD1V8 VDDORPADF
XFILLER01F_0 VDD3V3 VDD3V3 VSS VSS VDD1V8 FILLER01F
XBBCUD4F_14 BBCUD4F_14|EN BBCUD4F_14|A BBCUD4F_14|Y BBCUD4F_14|PO BBCUD4F_14|PI BBCUD4F_14|PUEN  BBCUD4F_14|PDEN gpio<14> VDD3V3 VSS VSS VDD3V3 VDD1V8 BBCUD4F
XBBCUD4F_13 BBCUD4F_13|EN BBCUD4F_13|A BBCUD4F_13|Y BBCUD4F_13|PO BBCUD4F_13|PI BBCUD4F_13|PUEN  BBCUD4F_13|PDEN gpio<13> VDD3V3 VSS VSS VDD3V3 VDD1V8 BBCUD4F
XBBCUD4F_12 BBCUD4F_12|EN BBCUD4F_12|A BBCUD4F_12|Y BBCUD4F_12|PO BBCUD4F_12|PI BBCUD4F_12|PUEN  BBCUD4F_12|PDEN gpio<12> VDD3V3 VSS VSS VDD3V3 VDD1V8 BBCUD4F
XBBCUD4F_11 BBCUD4F_11|EN BBCUD4F_11|A BBCUD4F_11|Y BBCUD4F_11|PO BBCUD4F_11|PI BBCUD4F_11|PUEN  BBCUD4F_11|PDEN gpio<11> VDD3V3 VSS VSS VDD3V3 VDD1V8 BBCUD4F
XBBCUD4F_10 BBCUD4F_10|EN BBCUD4F_10|A BBCUD4F_10|Y BBCUD4F_10|PO BBCUD4F_10|PI BBCUD4F_10|PUEN  BBCUD4F_10|PDEN gpio<10> VDD3V3 VSS VSS VDD3V3 VDD1V8 BBCUD4F
XBBCUD4F_9 BBCUD4F_9|EN BBCUD4F_9|A BBCUD4F_9|Y BBCUD4F_9|PO BBCUD4F_9|PI BBCUD4F_9|PUEN  BBCUD4F_9|PDEN gpio<9> VDD3V3 VSS VSS VDD3V3 VDD1V8 BBCUD4F
XBBCUD4F_8 BBCUD4F_8|EN BBCUD4F_8|A BBCUD4F_8|Y BBCUD4F_8|PO BBCUD4F_8|PI BBCUD4F_8|PUEN  BBCUD4F_8|PDEN gpio<8> VDD3V3 VSS VSS VDD3V3 VDD1V8 BBCUD4F
XBBCUD4F_7 BBCUD4F_7|EN BBCUD4F_7|A BBCUD4F_7|Y BBCUD4F_7|PO BBCUD4F_7|PI BBCUD4F_7|PUEN  BBCUD4F_7|PDEN gpio<7> VDD3V3 VSS VSS VDD3V3 VDD1V8 BBCUD4F
Xaregc01_3v3_1 aregc01_3v3_1|OUT aregc01_3v3_1|EN aregc01_3v3_1|VIN3 aregc01_3v3_1|ENB  VDD1V8 VDD3V3 VSS VSS VDD3V3 aregc01_3v3
XBBCUD4F_6 BBCUD4F_6|EN BBCUD4F_6|A BBCUD4F_6|Y BBCUD4F_6|PO BBCUD4F_6|PI BBCUD4F_6|PUEN  BBCUD4F_6|PDEN gpio<6> VDD3V3 VSS VSS VDD3V3 VDD1V8 BBCUD4F
XBBCUD4F_5 BBCUD4F_5|EN BBCUD4F_5|A BBCUD4F_5|Y BBCUD4F_5|PO BBCUD4F_5|PI BBCUD4F_5|PUEN  BBCUD4F_5|PDEN gpio<5> VDD3V3 VSS VSS VDD3V3 VDD1V8 BBCUD4F
XBBCUD4F_4 BBCUD4F_4|EN BBCUD4F_4|A BBCUD4F_4|Y BBCUD4F_4|PO BBCUD4F_4|PI BBCUD4F_4|PUEN  BBCUD4F_4|PDEN gpio<4> VDD3V3 VSS VSS VDD3V3 VDD1V8 BBCUD4F
XBBCUD4F_3 BBCUD4F_3|EN BBCUD4F_3|A BBCUD4F_3|Y BBCUD4F_3|PO BBCUD4F_3|PI BBCUD4F_3|PUEN  BBCUD4F_3|PDEN gpio<3> VDD3V3 VSS VSS VDD3V3 VDD1V8 BBCUD4F
XFILLER20F_4 VDD3V3 VDD3V3 VSS VSS VDD1V8 FILLER20F
XCORNERESDF_0 VSS VDD3V3 VDD1V8 VDD3V3 VSS CORNERESDF
XFILLER20F_2 VDD3V3 VDD3V3 VSS VSS VDD1V8 FILLER20F
XAPR00DF_4 APR00DF_4|PAD VDD3V3 VDD3V3 VSS VSS VDD1V8 APR00DF
XAPR00DF_3 APR00DF_3|PAD VDD3V3 VDD3V3 VSS VSS VDD1V8 APR00DF
XAPR00DF_2 APR00DF_2|PAD VDD3V3 VDD3V3 VSS VSS VDD1V8 APR00DF
XAPR00DF_1 adc1_in VDD3V3 VDD3V3 VSS VSS VDD1V8 APR00DF
XAPR00DF_0 adc0_in VDD3V3 VDD3V3 VSS VSS VDD1V8 APR00DF
XVDDORPADF_1 VDD3V3 VSS VSS VDD1V8 VDDORPADF
XGNDORPADF_1 VDD3V3 VDD3V3 VDD1V8 VSS GNDORPADF
Xaregc01_3v3_0 aregc01_3v3_0|OUT aregc01_3v3_0|EN aregc01_3v3_0|VIN3 aregc01_3v3_0|ENB  VDD1V8 VDD3V3 VSS VSS VDD3V3 aregc01_3v3
XFILLER20F_5 VDD3V3 VDD3V3 VSS VSS VDD1V8 FILLER20F
XFILLER10F_0 VDD3V3 VDD3V3 VSS VSS VDD1V8 FILLER10F
XFILLER02F_0 VDD3V3 VDD3V3 VSS VSS VDD1V8 FILLER02F
XVDDORPADF_3 VDD3V3 VSS VSS VDD1V8 VDDORPADF
XGNDORPADF_7 VDD3V3 VDD3V3 VDD1V8 VSS GNDORPADF
XFILLER02F_1 VDD3V3 VDD3V3 VSS VSS VDD1V8 FILLER02F
Xaxtoc02_3v3_0 VSS VDD3V3 VSS VDD3V3 VDD1V8 axtoc02_3v3_0|XI axtoc02_3v3_0|XO axtoc02_3v3_0|CLK  axtoc02_3v3_0|EN axtoc02_3v3
XBBCUD4F_1 BBCUD4F_1|EN BBCUD4F_1|A BBCUD4F_1|Y BBCUD4F_1|PO BBCUD4F_1|PI BBCUD4F_1|PUEN  BBCUD4F_1|PDEN gpio<0> VDD3V3 VSS VSS VDD3V3 VDD1V8 BBCUD4F
XBBCUD4F_0 BBCUD4F_0|EN BBCUD4F_0|A BBCUD4F_0|Y BBCUD4F_0|PO BBCUD4F_0|PI BBCUD4F_0|PUEN  BBCUD4F_0|PDEN gpio<1> VDD3V3 VSS VSS VDD3V3 VDD1V8 BBCUD4F
XBBCUD4F_2 BBCUD4F_2|EN BBCUD4F_2|A BBCUD4F_2|Y BBCUD4F_2|PO BBCUD4F_2|PI BBCUD4F_2|PUEN  BBCUD4F_2|PDEN gpio<2> VDD3V3 VSS VSS VDD3V3 VDD1V8 BBCUD4F
XFILLER20F_3 VDD3V3 VDD3V3 VSS VSS VDD1V8 FILLER20F
XCORNERESDF_1 VSS VDD3V3 VDD1V8 VDD3V3 VSS CORNERESDF
C0 BBCUD4F_4|PI BBCUD4F_4|Y 0.01fF
C1 BBCUD4F_14|PI BBCUD4F_14|Y 0.01fF
C2 ICFC_0|PI ICFC_0|PO 0.04fF
C3 BT4FC_0|A BT4FC_0|EN 0.04fF
C4 axtoc02_3v3_0|m4_0_28769# axtoc02_3v3_0|m4_0_22024# 0.09fF
C5 BBCUD4F_13|A BBCUD4F_13|EN 0.04fF
C6 BBCUD4F_6|PI BBCUD4F_6|PO 0.04fF
C7 BBCUD4F_7|PDEN BBCUD4F_7|PUEN 0.04fF
C8 VDD3V3 axtoc02_3v3_0|m4_0_30653# 0.22fF
C9 BBCUD4F_7|A BBCUD4F_7|EN 0.04fF
C10 BBCUD4F_0|PI BBCUD4F_0|PO 0.04fF
C11 axtoc02_3v3_0|m4_0_31172# axtoc02_3v3_0|m4_0_30653# 0.26fF
C12 BBCUD4F_5|PI BBCUD4F_5|Y 0.01fF
C13 BBC4F_1|A BBC4F_1|EN 0.04fF
C14 BBC4F_3|A BBC4F_3|EN 0.04fF
C15 BBCUD4F_4|PO BBCUD4F_4|Y 0.04fF
C16 ICFC_0|PI ICFC_0|Y 0.01fF
C17 VDD3V3 axtoc02_3v3_0|m4_0_22024# 3.50fF
C18 BBCUD4F_6|PI BBCUD4F_6|Y 0.01fF
C19 axtoc02_3v3_0|m4_0_29333# axtoc02_3v3_0|m4_0_29057# 0.33fF
C20 axtoc02_3v3_0|m4_0_30133# axtoc02_3v3_0|m4_0_28769# 0.03fF
C21 axtoc02_3v3_0|m4_0_28769# VSS 0.11fF
C22 BBCUD4F_2|PI BBCUD4F_2|PO 0.04fF
C23 BBC4F_0|A BBC4F_0|EN 0.04fF
C24 BBCUD4F_15|PI BBCUD4F_15|Y 0.01fF
C25 BBCUD4F_5|PO BBCUD4F_5|Y 0.04fF
C26 VDD1V8 VSS 17.44fF
C27 ICF_0|PO ICF_0|Y 0.04fF
C28 BBCUD4F_12|PDEN BBCUD4F_12|PUEN 0.04fF
C29 ICF_2|PI ICF_2|PO 0.04fF
C30 BBCUD4F_8|PDEN BBCUD4F_8|PUEN 0.04fF
C31 BBCUD4F_11|PO BBCUD4F_11|Y 0.04fF
C32 BBCUD4F_12|PI BBCUD4F_12|PO 0.04fF
C33 BBCUD4F_14|PO BBCUD4F_14|Y 0.04fF
C34 BBCUD4F_8|A BBCUD4F_8|EN 0.04fF
C35 ICFC_0|PO ICFC_0|Y 0.04fF
C36 BBCUD4F_6|PO BBCUD4F_6|Y 0.04fF
C37 BBCUD4F_1|PDEN BBCUD4F_1|PUEN 0.04fF
C38 BBCUD4F_0|PI BBCUD4F_0|Y 0.01fF
C39 VDD3V3 VSS 260.23fF
C40 BBCUD4F_2|PI BBCUD4F_2|Y 0.01fF
C41 axtoc02_3v3_0|m4_0_31172# axtoc02_3v3_0|m4_0_30133# 0.05fF
C42 BBCUD4F_9|PDEN BBCUD4F_9|PUEN 0.04fF
C43 BBCUD4F_15|PO BBCUD4F_15|Y 0.04fF
C44 BBCUD4F_9|A BBCUD4F_9|EN 0.04fF
C45 ICF_2|PI ICF_2|Y 0.01fF
C46 BBCUD4F_12|PI BBCUD4F_12|Y 0.01fF
C47 BT4F_0|A BT4F_0|EN 0.04fF
C48 BT4F_2|A BT4F_2|EN 0.04fF
C49 BBCUD4F_11|A BBCUD4F_11|EN 0.04fF
C50 BBCUD4F_10|PDEN BBCUD4F_10|PUEN 0.04fF
C51 ICF_1|PI ICF_1|PO 0.04fF
C52 ICFC_0|VDD3 VSS 1.43fF
C53 BBCUD4F_14|A BBCUD4F_14|EN 0.04fF
C54 axtoc02_3v3_0|m4_0_29333# axtoc02_3v3_0|m4_0_28769# 0.08fF
C55 BBCUD4F_3|PDEN BBCUD4F_3|PUEN 0.04fF
C56 BBCUD4F_10|A BBCUD4F_10|EN 0.04fF
C57 BBCUD4F_0|PO BBCUD4F_0|Y 0.04fF
C58 BBCUD4F_2|PO BBCUD4F_2|Y 0.04fF
C59 BBCUD4F_1|PI BBCUD4F_1|PO 0.04fF
C60 BBCUD4F_3|A BBCUD4F_3|EN 0.04fF
C61 ICFC_2|PI ICFC_2|PO 0.04fF
C62 BT4F_1|A BT4F_1|EN 0.04fF
C63 BBCUD4F_15|A BBCUD4F_15|EN 0.04fF
C64 ICF_2|PO ICF_2|Y 0.04fF
C65 axtoc02_3v3_0|m4_0_29057# axtoc02_3v3_0|m4_0_28769# 0.33fF
C66 BBCUD4F_7|PI BBCUD4F_7|PO 0.04fF
C67 ICFC_2|PI ICFC_2|Y 0.01fF
C68 axtoc02_3v3_0|m4_0_30653# axtoc02_3v3_0|m4_0_30133# 0.26fF
C69 axtoc02_3v3_0|m4_0_31172# axtoc02_3v3_0|m4_0_29333# 0.03fF
C70 BBCUD4F_0|A BBCUD4F_0|EN 0.04fF
C71 BBCUD4F_15|A VSS 0.01fF
C72 ICFC_1|PI ICFC_1|PO 0.04fF
C73 BBCUD4F_12|PO BBCUD4F_12|Y 0.04fF
C74 BBCUD4F_4|PDEN BBCUD4F_4|PUEN 0.04fF
C75 ICF_1|PI ICF_1|Y 0.01fF
C76 BBCUD4F_4|A BBCUD4F_4|EN 0.04fF
C77 VDD3V3 axtoc02_3v3_0|m4_0_29057# 0.11fF
C78 BBCUD4F_7|PI BBCUD4F_7|Y 0.01fF
C79 ICFC_2|PO ICFC_2|Y 0.04fF
C80 BBC4F_0|PI BBC4F_0|PO 0.04fF
C81 BBCUD4F_1|PI BBCUD4F_1|Y 0.01fF
C82 axtoc02_3v3_0|XO XO 7.60fF
C83 axtoc02_3v3_0|XI XI 7.60fF
C84 BBCUD4F_5|PDEN BBCUD4F_5|PUEN 0.04fF
C85 BBCUD4F_5|A BBCUD4F_5|EN 0.04fF
C86 aregc01_3v3_1|ENB aregc01_3v3_1|VIN3 0.01fF
C87 BBC4F_2|PI BBC4F_2|PO 0.04fF
C88 ICFC_1|PI ICFC_1|Y 0.01fF
C89 BBCUD4F_13|PDEN BBCUD4F_13|PUEN 0.04fF
C90 BBCUD4F_8|PI BBCUD4F_8|PO 0.04fF
C91 BBCUD4F_12|A BBCUD4F_12|EN 0.04fF
C92 ICF_1|PO ICF_1|Y 0.04fF
C93 BBCUD4F_13|PI BBCUD4F_13|PO 0.04fF
C94 BBCUD4F_6|PDEN BBCUD4F_6|PUEN 0.04fF
C95 BBCUD4F_6|A BBCUD4F_6|EN 0.04fF
C96 BBCUD4F_7|PO BBCUD4F_7|Y 0.04fF
C97 BBC4F_0|PI BBC4F_0|Y 0.01fF
C98 BBCUD4F_1|PO BBCUD4F_1|Y 0.04fF
C99 axtoc02_3v3_0|m4_0_30653# axtoc02_3v3_0|m4_0_29333# 0.05fF
C100 axtoc02_3v3_0|m4_0_30133# VSS 0.22fF
C101 BBCUD4F_9|PI BBCUD4F_9|PO 0.04fF
C102 BBC4F_1|PI BBC4F_1|PO 0.04fF
C103 aregc01_3v3_0|ENB aregc01_3v3_0|VIN3 0.01fF
C104 aregc01_3v3_1|EN aregc01_3v3_1|VIN3 0.01fF
C105 BBC4F_3|PI BBC4F_3|PO 0.04fF
C106 ICFC_1|PO ICFC_1|Y 0.04fF
C107 aregc01_3v3_1|ENB aregc01_3v3_1|EN 0.06fF
C108 BBCUD4F_8|PI BBCUD4F_8|Y 0.01fF
C109 BBCUD4F_13|PI BBCUD4F_13|Y 0.01fF
C110 BBCUD4F_10|PI BBCUD4F_10|PO 0.04fF
C111 axtoc02_3v3_0|m4_0_29333# axtoc02_3v3_0|m4_0_22024# 0.03fF
C112 BBCUD4F_3|PI BBCUD4F_3|PO 0.04fF
C113 BBC4F_0|PO BBC4F_0|Y 0.04fF
C114 BBCUD4F_2|PDEN BBCUD4F_2|PUEN 0.04fF
C115 axtoc02_3v3_0|m4_0_30653# axtoc02_3v3_0|m4_0_29057# 0.02fF
C116 BBCUD4F_2|A BBCUD4F_2|EN 0.04fF
C117 BBCUD4F_1|A BBCUD4F_1|EN 0.04fF
C118 VDD1V8 VDD3V3 52.10fF
C119 BBCUD4F_9|PI BBCUD4F_9|Y 0.01fF
C120 VDD1V8 axtoc02_3v3_0|m4_0_31172# 0.37fF
C121 aregc01_3v3_0|EN aregc01_3v3_0|VIN3 0.01fF
C122 BBC4F_2|PI BBC4F_2|Y 0.01fF
C123 BBC4F_3|PI BBC4F_3|Y 0.01fF
C124 BBCUD4F_8|PO BBCUD4F_8|Y 0.04fF
C125 axtoc02_3v3_0|m4_0_29057# axtoc02_3v3_0|m4_0_22024# 0.05fF
C126 BBCUD4F_10|PI BBCUD4F_10|Y 0.01fF
C127 ICFC_0|VDD3 VDD1V8 0.67fF
C128 axtoc02_3v3_0|m4_0_0# VSS 3.72fF
C129 axtoc02_3v3_0|m4_0_30133# axtoc02_3v3_0|m4_0_29333# 0.26fF
C130 BBCUD4F_3|PI BBCUD4F_3|Y 0.01fF
C131 axtoc02_3v3_0|m4_0_29333# VSS 0.37fF
C132 BBCUD4F_15|PDEN BBCUD4F_15|PUEN 0.04fF
C133 BBCUD4F_9|PO BBCUD4F_9|Y 0.04fF
C134 BBC4F_1|PI BBC4F_1|Y 0.01fF
C135 BBC4F_2|PO BBC4F_2|Y 0.04fF
C136 ICF_0|PI ICF_0|PO 0.04fF
C137 BBCUD4F_11|PDEN BBCUD4F_11|PUEN 0.04fF
C138 aregc01_3v3_0|ENB aregc01_3v3_0|EN 0.06fF
C139 BBCUD4F_14|PDEN BBCUD4F_14|PUEN 0.04fF
C140 ICFC_0|VDD3 VDD3V3 4.25fF
C141 BBCUD4F_11|PI BBCUD4F_11|PO 0.04fF
C142 BBCUD4F_4|PI BBCUD4F_4|PO 0.04fF
C143 BBCUD4F_13|PO BBCUD4F_13|Y 0.04fF
C144 BBCUD4F_14|PI BBCUD4F_14|PO 0.04fF
C145 BBCUD4F_10|PO BBCUD4F_10|Y 0.04fF
C146 BBCUD4F_0|PDEN BBCUD4F_0|PUEN 0.04fF
C147 axtoc02_3v3_0|m4_0_30133# axtoc02_3v3_0|m4_0_29057# 0.03fF
C148 BBCUD4F_3|PO BBCUD4F_3|Y 0.04fF
C149 BBCUD4F_15|PI BBCUD4F_15|PO 0.04fF
C150 BBCUD4F_5|PI BBCUD4F_5|PO 0.04fF
C151 BBC4F_1|PO BBC4F_1|Y 0.04fF
C152 ICF_0|PI ICF_0|Y 0.01fF
C153 BBC4F_3|PO BBC4F_3|Y 0.04fF
C154 BBC4F_2|A BBC4F_2|EN 0.04fF
C155 BBCUD4F_11|PI BBCUD4F_11|Y 0.01fF
C156 XI w_n1073741817_n1073741817# -2.82fF
C157 XO w_n1073741817_n1073741817# -2.82fF
C158 gpio<2> w_n1073741817_n1073741817# -49.46fF
C159 gpio<1> w_n1073741817_n1073741817# 3.06fF
C160 gpio<0> w_n1073741817_n1073741817# 6.15fF
C161 VSS w_n1073741817_n1073741817# 32.97fF
C162 adc0_in w_n1073741817_n1073741817# 32.97fF
C163 adc1_in w_n1073741817_n1073741817# 32.97fF
C164 APR00DF_2|PAD w_n1073741817_n1073741817# 32.97fF
C165 APR00DF_3|PAD w_n1073741817_n1073741817# 32.97fF
C166 APR00DF_4|PAD w_n1073741817_n1073741817# 15.35fF
C167 gpio<3> w_n1073741817_n1073741817# 32.97fF
C168 gpio<4> w_n1073741817_n1073741817# 25.15fF
C169 gpio<5> w_n1073741817_n1073741817# 32.97fF
C170 gpio<6> w_n1073741817_n1073741817# 32.97fF
C171 VDD3V3 w_n1073741817_n1073741817# 32.97fF
C172 VDD1V8 w_n1073741817_n1073741817# 32.97fF
C173 gpio<7> w_n1073741817_n1073741817# 32.97fF
C174 gpio<8> w_n1073741817_n1073741817# 32.97fF
C175 gpio<9> w_n1073741817_n1073741817# 32.97fF
C176 gpio<10> w_n1073741817_n1073741817# 31.51fF
C177 gpio<11> w_n1073741817_n1073741817# 6.06fF
C178 gpio<12> w_n1073741817_n1073741817# 32.97fF
C179 gpio<13> w_n1073741817_n1073741817# 32.97fF
C180 gpio<14> w_n1073741817_n1073741817# 32.97fF
C181 comp_inn w_n1073741817_n1073741817# 32.97fF
C182 comp_inp w_n1073741817_n1073741817# 32.97fF
C183 irq w_n1073741817_n1073741817# 32.97fF
C184 ser_tx w_n1073741817_n1073741817# 32.97fF
C185 ser_rx w_n1073741817_n1073741817# 8.32fF
C186 gpio<15> w_n1073741817_n1073741817# 32.97fF
C187 SDI w_n1073741817_n1073741817# 18.78fF
C188 CSB w_n1073741817_n1073741817# 12.42fF
C189 SCK w_n1073741817_n1073741817# 32.97fF
C190 SDO w_n1073741817_n1073741817# 32.97fF
C191 flash_io3 w_n1073741817_n1073741817# 32.97fF
C192 flash_io2 w_n1073741817_n1073741817# 32.97fF
C193 flash_io1 w_n1073741817_n1073741817# 32.97fF
C194 flash_io0 w_n1073741817_n1073741817# 32.97fF
C195 flash_csb w_n1073741817_n1073741817# 32.97fF
C196 flash_clk w_n1073741817_n1073741817# 10.83fF
C197 XCLK w_n1073741817_n1073741817# 32.97fF
.ends

* Need include to schematic netlist for LOGIC0_3V

* Need include to schematic netlist for LOGIC1_3V

* Black-box entry replaced by path to RCX netlist
.include /home/wflisseg/design/ip/AMUX4_3V/11.0/spi-rcx/AMUX4_3V/AMUX4_3V__AMUX4_3V.spi

* Black-box entry replaced by path to schematic netlist
.include /home/wflisseg/design/ip/XSPRAM_1024X32_M8P/3.0/spi/XSPRAM_1024X32_M8P.spi

* Need include to schematic netlist for abgpc01_3v3
* Unknown black-box entry abgpc01_3v3
.subckt abgpc01_3v3 VDDA VSSA EN VBGVTN VBGP

* Need include to schematic netlist for acmpc01_3v3
* Unknown black-box entry acmpc01_3v3
.subckt acmpc01_3v3 IBN INP INN EN OUT VDDA VSSA

* Need include to schematic netlist for acsoc01_3v3
* Unknown black-box entry acsoc01_3v3
.subckt acsoc01_3v3 VDDA VSSA EN CS2_200N CS1_200N CS0_200N CS3_200N

* Need include to schematic netlist for arcoc01_3v3
* Unknown black-box entry arcoc01_3v3
.subckt arcoc01_3v3 EN CLK VDDA VSSA

* Need include to schematic netlist for aporc02_3v3
* Unknown black-box entry aporc02_3v3
.subckt aporc02_3v3 POR PORB VDDA VSSA

* Black-box entry replaced by path to RCX netlist
.include /home/wflisseg/design/ip/raven_spi/5.0/spi-rcx/raven_spi/raven_spi__raven_spi.spi

* Black-box entry replaced by path to RCX netlist
.include /home/wflisseg/design/ip/LS_3VX2/8.0/spi-rcx/LS_3VX2/LS_3VX2__LS_3VX2.spi

* Need include to schematic netlist for BU_3VX2

.subckt cmm5t_x3bss8 m4_2311_n4260# m4_6805_n4260# m4_24881_n4160# m4_29375_n4160#  m4_33869_n4160# w_n1073741817_n1073741817# m4_11399_n4160# m4_15893_n4160# m4_20387_n4160#  m4_n6677_n4260# m4_n2183_n4260# m4_n38135_n4260# m4_n33641_n4260# m4_n29147_n4260#  m4_6905_n4160# m4_n24653_n4260# m4_n20159_n4260# m4_n15665_n4260# m4_2411_n4160#  m4_n11171_n4260# m4_n6577_n4160# m4_n2083_n4160# m4_n38035_n4160# m4_n33541_n4160#  m4_n29047_n4160# m4_n24553_n4160# m4_n20059_n4160# m4_n15565_n4160# m4_n11071_n4160#  m4_24781_n4260# m4_29275_n4260# m4_33769_n4260# m4_11299_n4260# m4_15793_n4260#  m4_20287_n4260#
X0 m4_n38035_n4160# m4_n38135_n4260# w_n1073741817_n1073741817# cmm5t p=80u a=400p
X1 m4_n33541_n4160# m4_n33641_n4260# w_n1073741817_n1073741817# cmm5t p=80u a=400p
X2 m4_n29047_n4160# m4_n29147_n4260# w_n1073741817_n1073741817# cmm5t p=80u a=400p
X3 m4_n24553_n4160# m4_n24653_n4260# w_n1073741817_n1073741817# cmm5t p=80u a=400p
X4 m4_n20059_n4160# m4_n20159_n4260# w_n1073741817_n1073741817# cmm5t p=80u a=400p
X5 m4_n15565_n4160# m4_n15665_n4260# w_n1073741817_n1073741817# cmm5t p=80u a=400p
X6 m4_n11071_n4160# m4_n11171_n4260# w_n1073741817_n1073741817# cmm5t p=80u a=400p
X7 m4_n6577_n4160# m4_n6677_n4260# w_n1073741817_n1073741817# cmm5t p=80u a=400p
X8 m4_n2083_n4160# m4_n2183_n4260# w_n1073741817_n1073741817# cmm5t p=80u a=400p
X9 m4_2411_n4160# m4_2311_n4260# w_n1073741817_n1073741817# cmm5t p=80u a=400p
X10 m4_6905_n4160# m4_6805_n4260# w_n1073741817_n1073741817# cmm5t p=80u a=400p
X11 m4_11399_n4160# m4_11299_n4260# w_n1073741817_n1073741817# cmm5t p=80u a=400p
X12 m4_15893_n4160# m4_15793_n4260# w_n1073741817_n1073741817# cmm5t p=80u a=400p
X13 m4_20387_n4160# m4_20287_n4260# w_n1073741817_n1073741817# cmm5t p=80u a=400p
X14 m4_24881_n4160# m4_24781_n4260# w_n1073741817_n1073741817# cmm5t p=80u a=400p
X15 m4_29375_n4160# m4_29275_n4260# w_n1073741817_n1073741817# cmm5t p=80u a=400p
X16 m4_33869_n4160# m4_33769_n4260# w_n1073741817_n1073741817# cmm5t p=80u a=400p
X17 m4_n38035_n4160# m4_n38135_n4260# w_n1073741817_n1073741817# cmm5t p=80u a=400p
X18 m4_n33541_n4160# m4_n33641_n4260# w_n1073741817_n1073741817# cmm5t p=80u a=400p
X19 m4_n29047_n4160# m4_n29147_n4260# w_n1073741817_n1073741817# cmm5t p=80u a=400p
X20 m4_n24553_n4160# m4_n24653_n4260# w_n1073741817_n1073741817# cmm5t p=80u a=400p
X21 m4_n20059_n4160# m4_n20159_n4260# w_n1073741817_n1073741817# cmm5t p=80u a=400p
X22 m4_n15565_n4160# m4_n15665_n4260# w_n1073741817_n1073741817# cmm5t p=80u a=400p
X23 m4_n11071_n4160# m4_n11171_n4260# w_n1073741817_n1073741817# cmm5t p=80u a=400p
X24 m4_n6577_n4160# m4_n6677_n4260# w_n1073741817_n1073741817# cmm5t p=80u a=400p
X25 m4_n2083_n4160# m4_n2183_n4260# w_n1073741817_n1073741817# cmm5t p=80u a=400p
X26 m4_2411_n4160# m4_2311_n4260# w_n1073741817_n1073741817# cmm5t p=80u a=400p
X27 m4_6905_n4160# m4_6805_n4260# w_n1073741817_n1073741817# cmm5t p=80u a=400p
X28 m4_11399_n4160# m4_11299_n4260# w_n1073741817_n1073741817# cmm5t p=80u a=400p
X29 m4_15893_n4160# m4_15793_n4260# w_n1073741817_n1073741817# cmm5t p=80u a=400p
X30 m4_20387_n4160# m4_20287_n4260# w_n1073741817_n1073741817# cmm5t p=80u a=400p
X31 m4_24881_n4160# m4_24781_n4260# w_n1073741817_n1073741817# cmm5t p=80u a=400p
X32 m4_29375_n4160# m4_29275_n4260# w_n1073741817_n1073741817# cmm5t p=80u a=400p
X33 m4_33869_n4160# m4_33769_n4260# w_n1073741817_n1073741817# cmm5t p=80u a=400p
C0 m4_n24653_n4260# m4_n20159_n4260# 6.69fF
C1 m4_n33641_n4260# m4_n29047_n4160# 3.54fF
C2 m4_n29147_n4260# m4_n24653_n4260# 6.69fF
C3 m4_2411_n4160# m4_6905_n4160# 1.65fF
C4 m4_n2183_n4260# m4_n2083_n4160# 5.16fF
C5 m4_20287_n4260# m4_24881_n4160# 3.54fF
C6 m4_11299_n4260# m4_11399_n4160# 5.16fF
C7 m4_n24653_n4260# m4_n20059_n4160# 3.54fF
C8 m4_n15665_n4260# m4_n15565_n4160# 5.16fF
C9 m4_33769_n4260# m4_33869_n4160# 5.16fF
C10 m4_24781_n4260# m4_29275_n4260# 6.69fF
C11 m4_n38135_n4260# m4_n38035_n4160# 5.16fF
C12 m4_11299_n4260# m4_15793_n4260# 6.69fF
C13 m4_n20159_n4260# m4_n15665_n4260# 6.69fF
C14 m4_n15665_n4260# m4_n11171_n4260# 6.69fF
C15 m4_6805_n4260# m4_6905_n4160# 5.16fF
C16 m4_n2183_n4260# m4_2311_n4260# 6.69fF
C17 m4_24781_n4260# m4_29375_n4160# 3.54fF
C18 m4_n20159_n4260# m4_n15565_n4160# 3.54fF
C19 m4_n15665_n4260# m4_n11071_n4160# 3.54fF
C20 m4_n33541_n4160# m4_n29047_n4160# 1.65fF
C21 m4_n29147_n4260# m4_n24553_n4160# 3.54fF
C22 m4_n2183_n4260# m4_2411_n4160# 3.54fF
C23 m4_n38135_n4260# m4_n33641_n4260# 6.69fF
C24 m4_24881_n4160# m4_29375_n4160# 1.65fF
C25 m4_11299_n4260# m4_15893_n4160# 3.54fF
C26 m4_n24553_n4160# m4_n20059_n4160# 1.65fF
C27 m4_n6677_n4260# m4_n2183_n4260# 6.69fF
C28 m4_n20059_n4160# m4_n15565_n4160# 1.65fF
C29 m4_15793_n4260# m4_20387_n4160# 3.54fF
C30 m4_n15565_n4160# m4_n11071_n4160# 1.65fF
C31 m4_n2083_n4160# m4_2411_n4160# 1.65fF
C32 m4_n20159_n4260# m4_n20059_n4160# 5.16fF
C33 m4_n6677_n4260# m4_n2083_n4160# 3.54fF
C34 m4_6805_n4260# m4_11299_n4260# 6.69fF
C35 m4_n11171_n4260# m4_n11071_n4160# 5.16fF
C36 m4_n29147_n4260# m4_n33641_n4260# 6.69fF
C37 m4_29275_n4260# m4_29375_n4160# 5.16fF
C38 m4_11399_n4160# m4_15893_n4160# 1.65fF
C39 m4_n6577_n4160# m4_n2083_n4160# 1.65fF
C40 m4_15893_n4160# m4_20387_n4160# 1.65fF
C41 m4_n11171_n4260# m4_n6677_n4260# 6.69fF
C42 m4_n38135_n4260# m4_n33541_n4160# 3.54fF
C43 m4_2311_n4260# m4_2411_n4160# 5.16fF
C44 m4_15793_n4260# m4_15893_n4160# 5.16fF
C45 m4_20287_n4260# m4_20387_n4160# 5.16fF
C46 m4_20387_n4160# m4_24881_n4160# 1.65fF
C47 m4_6805_n4260# m4_11399_n4160# 3.54fF
C48 m4_n11171_n4260# m4_n6577_n4160# 3.54fF
C49 m4_n38035_n4160# m4_n33541_n4160# 1.65fF
C50 m4_29275_n4260# m4_33769_n4260# 6.69fF
C51 m4_15793_n4260# m4_20287_n4260# 6.69fF
C52 m4_n29047_n4160# m4_n24553_n4160# 1.65fF
C53 m4_6905_n4160# m4_11399_n4160# 1.65fF
C54 m4_n11071_n4160# m4_n6577_n4160# 1.65fF
C55 m4_2311_n4260# m4_6805_n4260# 6.69fF
C56 m4_29275_n4260# m4_33869_n4160# 3.54fF
C57 m4_n24653_n4260# m4_n24553_n4160# 5.16fF
C58 m4_n6677_n4260# m4_n6577_n4160# 5.16fF
C59 m4_n33641_n4260# m4_n33541_n4160# 5.16fF
C60 m4_n29147_n4260# m4_n29047_n4160# 5.16fF
C61 m4_2311_n4260# m4_6905_n4160# 3.54fF
C62 m4_29375_n4160# m4_33869_n4160# 1.65fF
C63 m4_20287_n4260# m4_24781_n4260# 6.69fF
C64 m4_24781_n4260# m4_24881_n4160# 5.16fF
C65 m4_33869_n4160# w_n1073741817_n1073741817# 4.82fF
C66 m4_33769_n4260# w_n1073741817_n1073741817# 1.79fF
C67 m4_29375_n4160# w_n1073741817_n1073741817# 4.82fF
C68 m4_29275_n4260# w_n1073741817_n1073741817# 1.79fF
C69 m4_24881_n4160# w_n1073741817_n1073741817# 4.82fF
C70 m4_24781_n4260# w_n1073741817_n1073741817# 1.79fF
C71 m4_20387_n4160# w_n1073741817_n1073741817# 4.82fF
C72 m4_20287_n4260# w_n1073741817_n1073741817# 1.79fF
C73 m4_15893_n4160# w_n1073741817_n1073741817# 4.82fF
C74 m4_15793_n4260# w_n1073741817_n1073741817# 1.79fF
C75 m4_11399_n4160# w_n1073741817_n1073741817# 4.82fF
C76 m4_11299_n4260# w_n1073741817_n1073741817# 1.79fF
C77 m4_6905_n4160# w_n1073741817_n1073741817# 4.82fF
C78 m4_6805_n4260# w_n1073741817_n1073741817# 1.79fF
C79 m4_2411_n4160# w_n1073741817_n1073741817# 4.82fF
C80 m4_2311_n4260# w_n1073741817_n1073741817# 1.79fF
C81 m4_n2083_n4160# w_n1073741817_n1073741817# 4.82fF
C82 m4_n2183_n4260# w_n1073741817_n1073741817# 1.79fF
C83 m4_n6577_n4160# w_n1073741817_n1073741817# 4.82fF
C84 m4_n6677_n4260# w_n1073741817_n1073741817# 1.79fF
C85 m4_n11071_n4160# w_n1073741817_n1073741817# 4.82fF
C86 m4_n11171_n4260# w_n1073741817_n1073741817# 1.79fF
C87 m4_n15565_n4160# w_n1073741817_n1073741817# 4.82fF
C88 m4_n15665_n4260# w_n1073741817_n1073741817# 1.79fF
C89 m4_n20059_n4160# w_n1073741817_n1073741817# 4.82fF
C90 m4_n20159_n4260# w_n1073741817_n1073741817# 1.79fF
C91 m4_n24553_n4160# w_n1073741817_n1073741817# 4.82fF
C92 m4_n24653_n4260# w_n1073741817_n1073741817# 1.79fF